case_G2.m
function mpc = case_G2

%% Created Date：2020-10-03
%% Author：Dirreck_3170105814_葛明阳

%% MATPOWER Case Format : Version 2
mpc.version = '2';

%% system MVA base
% mpc.baseMVA = 100;

%% bus data
mpc.bus = [
  1  3  0        100 10  0 
  2  1  600      98 10  0
  3  1  0        97 10  0
  4  1  1100     97 10  0
  5  1  1647.12  96 10  0
  6  1  1871.35  94 10  0
  7  1  2000     94 10  0
  8  1  0      100 10  0
  9 1   500       98 10 0     
  10 1  500 96 10 0 
  11 1  1200 96 10 0 
  12 1  1500 95 10 0 
  13 1  0 100 10 0 
  14 1  1100 98 10 0 
];

% Gload=[0 1100 1647.12 1871.35 2000]/G_B;
%% generator data
% bus  Gg Vg    Gmax  Gmin
mpc.gen = [
  1  0  100.0000  5000  0
  8  0  100.0000	5000  0
  13 0  100.000   5000  0
];
%% branch data
% fbus  tbus  length  diameter  Type
% Type: 树枝1/连枝2/压缩机3
mpc.branch=[
   1 2 500 0.150 1;
   2 3 500 0.150 1;
   2 4 400 0.150 1;
   2 5 500 0.150 1;
   5 6 500 0.150 1;
   5 7 600 0.150 1;
   5 8 700 0.150 3;
   8 9 100 0.150 1;
   9 10 400 0.150 1;
   9 11 100 0.150 1;
   7 11 900 0.150 1;
   11 12 300 0.150 1;
   12 13 600 0.150 3;
   13 14 100 0.150 1
   11 14 1100 0.150 1;
   ];
%    6 7 200 0.150 2;
% diameter mm->m
